Circuit: * E:\1. Undergraduate Studies\3. Hackathons and Projects\3. Collaborations\CollabBots\hardware\pcbs\simulations\pushbutton-debounce\pushbutton-debounce-circuitry.asc

V1: Removing PWL point (0.4,3.3)
.OP point found by inspection.

Date: Mon Jun 24 23:32:14 2019
Total elapsed time: 0.157 seconds.

tnom = 27
temp = 27
method = modified trap
totiter = 2178
traniter = 2178
tranpoints = 1090
accept = 1086
rejected = 4
matrix size = 3
fillins = 0
solver = Normal
Matrix Compiler1: 50 bytes object code size  0.1/0.1/[0.1]
Matrix Compiler2: 175 bytes object code size  0.1/0.1/[0.0]

