Circuit: * E:\1. Undergraduate Studies\3. Hackathons and Projects\3. Collaborations\CollabBots\hardware\pcbs\simulations\relay-driver\G5LE-relay-coil-driver-circuitry.asc

Limiting rise time of source v1 to 0.05
Limiting fall time of source v1 to 0.05
.OP point found by inspection.

Date: Tue Jun 25 08:40:27 2019
Total elapsed time: 3.703 seconds.

tnom = 27
temp = 27
method = modified trap
totiter = 153109
traniter = 153109
tranpoints = 74809
accept = 51777
rejected = 23032
matrix size = 14
fillins = 4
solver = Normal
Matrix Compiler1: 1.10 KB object code size  1.3/0.7/[0.2]
Matrix Compiler2: 1.21 KB object code size  0.8/1.0/[0.2]

